<NUMBER OF ZONES> 4
<TOTAL OD FLOW>   3.0
<END OF METADATA>

Origin 	1 
    2 :      2.0;     4 :     1.0;